trunk/Version8/Distrib/Examples/pyControls/Regulator/ieee123_VLN_Node.Txt

LINE-GROUND and LINE-LINE VOLTAGES BY BUS & NODE

Bus      Node    VLN (kV)   Angle      pu     Base kV    Node-Node   VLL (kV)  Angle      pu

150 .... 1       2.4018 /_    0.0   0.99999     4.160        1-2       4.16 /_   30.0   0.99999
   -     2       2.4018 /_ -120.0   0.99999     4.160        2-3       4.16 /_  -90.0   0.99999
   -     3       2.4018 /_  120.0   0.99999     4.160        3-1       4.16 /_  150.0   0.99999
149 .... 1        2.491 /_    0.0    1.0371     4.160        1-2     4.3147 /_   30.0    1.0372
   -     2       2.4913 /_ -120.0    1.0373     4.160        2-3      4.315 /_  -90.0    1.0373
   -     3       2.4912 /_  120.0    1.0372     4.160        3-1     4.3147 /_  150.0    1.0372
1 ...... 1       2.4608 /_   -0.7    1.0246     4.160        1-2     4.2765 /_   29.7     1.028
   -     2       2.4856 /_ -120.3    1.0349     4.160        2-3     4.2926 /_  -90.5    1.0319
   -     3       2.4696 /_  119.6    1.0282     4.160        3-1     4.2758 /_  149.4    1.0278
7 ...... 1       2.4383 /_   -1.1    1.0152     4.160        1-2     4.2488 /_   29.4    1.0213
   -     2       2.4816 /_ -120.6    1.0332     4.160        2-3     4.2769 /_  -90.8    1.0281
   -     3       2.4557 /_  119.4    1.0224     4.160        3-1     4.2491 /_  149.0    1.0214
8 ...... 1       2.4237 /_   -1.4    1.0091     4.160        1-2     4.2306 /_   29.3     1.017
   -     2       2.4787 /_ -120.7     1.032     4.160        2-3     4.2665 /_  -91.0    1.0256
   -     3       2.4465 /_  119.2    1.0186     4.160        3-1     4.2315 /_  148.7    1.0172
13 ..... 1       2.4044 /_   -1.9    1.0011     4.160        1-2     4.2052 /_   29.1    1.0109
   -     2       2.4736 /_ -121.0    1.0299     4.160        2-3     4.2511 /_  -91.3    1.0219
   -     3       2.4327 /_  118.9    1.0129     4.160        3-1      4.206 /_  148.3    1.0111
152 .... 1        2.404 /_   -1.9    1.0009     4.160        1-2     4.2046 /_   29.0    1.0107
   -     2       2.4733 /_ -121.0    1.0298     4.160        2-3     4.2506 /_  -91.3    1.0218
   -     3       2.4324 /_  118.9    1.0127     4.160        3-1     4.2054 /_  148.3    1.0109
52 ..... 1       2.3894 /_   -2.3   0.99485     4.160        1-2     4.1867 /_   28.8    1.0064
   -     2       2.4705 /_ -121.2    1.0286     4.160        2-3     4.2411 /_  -91.6    1.0195
   -     3       2.4243 /_  118.7    1.0094     4.160        3-1     4.1888 /_  148.0    1.0069
53 ..... 1       2.3828 /_   -2.4    0.9921     4.160        1-2     4.1782 /_   28.7    1.0044
   -     2       2.4688 /_ -121.3    1.0279     4.160        2-3     4.2363 /_  -91.7    1.0183
   -     3       2.4204 /_  118.6    1.0077     4.160        3-1     4.1807 /_  147.8     1.005
54 ..... 1       2.3791 /_   -2.6   0.99055     4.160        1-2     4.1732 /_   28.6    1.0032
   -     2       2.4675 /_ -121.4    1.0273     4.160        2-3     4.2333 /_  -91.8    1.0176
   -     3       2.4179 /_  118.5    1.0067     4.160        3-1     4.1757 /_  147.7    1.0038
94_OPEN  1       2.3791 /_   -2.6   0.99055     4.160
57 ..... 1       2.3714 /_   -2.9   0.98736     4.160        1-2     4.1587 /_   28.4   0.99969
   -     2       2.4609 /_ -121.6    1.0246     4.160        2-3     4.2221 /_  -92.0    1.0149
   -     3       2.4115 /_  118.3    1.0041     4.160        3-1     4.1655 /_  147.4    1.0013
60 ..... 1       2.3555 /_   -3.5   0.98072     4.160        1-2     4.1286 /_   27.9   0.99246
   -     2       2.4492 /_ -122.0    1.0197     4.160        2-3     4.1999 /_  -92.4    1.0096
   -     3       2.3965 /_  117.8    0.9978     4.160        3-1     4.1436 /_  146.9   0.99606
160 .... 1       2.3552 /_   -3.6   0.98061     4.160        1-2     4.1282 /_   27.9   0.99236
   -     2        2.449 /_ -122.0    1.0197     4.160        2-3     4.1996 /_  -92.5    1.0095
   -     3       2.3963 /_  117.8   0.99773     4.160        3-1     4.1433 /_  146.9   0.99598
160R ... 1        2.473 /_   -3.6    1.0296     4.160        1-2     4.2554 /_   27.3    1.0229
   -     2       2.4796 /_ -122.0    1.0324     4.160        2-3     4.2392 /_  -92.6     1.019
   -     3       2.4113 /_  117.8     1.004     4.160        3-1     4.2591 /_  147.5    1.0238
67 ..... 1       2.4684 /_   -3.8    1.0278     4.160        1-2     4.2479 /_   27.1    1.0211
   -     2       2.4775 /_ -122.2    1.0315     4.160        2-3     4.2318 /_  -92.7    1.0173
   -     3       2.4057 /_  117.7    1.0017     4.160        3-1     4.2526 /_  147.4    1.0223
97 ..... 1        2.466 /_   -3.9    1.0268     4.160        1-2     4.2442 /_   27.0    1.0202
   -     2       2.4762 /_ -122.2     1.031     4.160        2-3     4.2292 /_  -92.8    1.0166
   -     3        2.404 /_  117.7    1.0009     4.160        3-1     4.2497 /_  147.3    1.0216
197 .... 1        2.466 /_   -3.9    1.0267     4.160        1-2      4.244 /_   27.0    1.0202
   -     2       2.4762 /_ -122.2     1.031     4.160        2-3     4.2291 /_  -92.8    1.0166
   -     3       2.4039 /_  117.7    1.0009     4.160        3-1     4.2495 /_  147.3    1.0215
101 .... 1        2.464 /_   -3.9    1.0259     4.160        1-2     4.2412 /_   27.0    1.0195
   -     2       2.4755 /_ -122.2    1.0307     4.160        2-3     4.2273 /_  -92.8    1.0162
   -     3       2.4025 /_  117.7    1.0003     4.160        3-1     4.2473 /_  147.3     1.021
105 .... 1       2.4608 /_   -3.9    1.0246     4.160        1-2     4.2382 /_   27.0    1.0188
   -     2       2.4752 /_ -122.3    1.0306     4.160        2-3     4.2259 /_  -92.8    1.0159
   -     3       2.4032 /_  117.7    1.0006     4.160        3-1     4.2466 /_  147.2    1.0208
108 .... 1       2.4573 /_   -4.0    1.0231     4.160        1-2     4.2353 /_   27.0    1.0181
   -     2       2.4767 /_ -122.3    1.0312     4.160        2-3     4.2258 /_  -92.8    1.0158
   -     3       2.4029 /_  117.7    1.0005     4.160        3-1     4.2454 /_  147.2    1.0205
300 .... 1       2.4573 /_   -4.0    1.0231     4.160        1-2     4.2353 /_   27.0    1.0181
   -     2       2.4767 /_ -122.3    1.0312     4.160        2-3     4.2258 /_  -92.8    1.0158
   -     3       2.4029 /_  117.7    1.0005     4.160        3-1     4.2454 /_  147.2    1.0205
109 .... 1       2.4474 /_   -4.1     1.019     4.160
110 .... 1       2.4426 /_   -4.1     1.017     4.160
112 .... 1        2.441 /_   -4.1    1.0163     4.160
113 .... 1        2.436 /_   -4.2    1.0143     4.160
114 .... 1        2.435 /_   -4.2    1.0138     4.160
111 .... 1       2.4408 /_   -4.1    1.0163     4.160
106 .... 2       2.4724 /_ -122.3    1.0294     4.160
107 .... 2       2.4689 /_ -122.3    1.0279     4.160
102 .... 3        2.399 /_  117.6   0.99884     4.160
103 .... 3       2.3949 /_  117.6   0.99712     4.160
104 .... 3       2.3904 /_  117.6   0.99527     4.160
98 ..... 1       2.4655 /_   -3.9    1.0265     4.160        1-2     4.2432 /_   27.0      1.02
   -     2       2.4756 /_ -122.2    1.0307     4.160        2-3     4.2283 /_  -92.8    1.0164
   -     3       2.4035 /_  117.7    1.0007     4.160        3-1     4.2488 /_  147.3    1.0214
99 ..... 1       2.4662 /_   -3.9    1.0268     4.160        1-2     4.2425 /_   27.0    1.0198
   -     2       2.4737 /_ -122.2    1.0299     4.160        2-3     4.2265 /_  -92.8     1.016
   -     3       2.4027 /_  117.6    1.0004     4.160        3-1     4.2477 /_  147.3    1.0211
100 .... 1       2.4667 /_   -3.9     1.027     4.160        1-2     4.2425 /_   27.0    1.0198
   -     2       2.4735 /_ -122.2    1.0299     4.160        2-3     4.2262 /_  -92.8    1.0159
   -     3       2.4018 /_  117.6         1     4.160        3-1     4.2469 /_  147.3    1.0209
450 .... 1       2.4667 /_   -3.9     1.027     4.160        1-2     4.2425 /_   27.0    1.0198
   -     2       2.4735 /_ -122.2    1.0299     4.160        2-3     4.2262 /_  -92.8    1.0159
   -     3       2.4018 /_  117.6         1     4.160        3-1     4.2469 /_  147.3    1.0209
72 ..... 1       2.4694 /_   -3.9    1.0282     4.160        1-2      4.247 /_   26.9    1.0209
   -     2       2.4754 /_ -122.3    1.0306     4.160        2-3     4.2298 /_  -92.8    1.0168
   -     3        2.405 /_  117.6    1.0013     4.160        3-1     4.2523 /_  147.3    1.0222
76 ..... 1       2.4692 /_   -4.0    1.0281     4.160        1-2     4.2464 /_   26.9    1.0208
   -     2       2.4741 /_ -122.4    1.0301     4.160        2-3      4.229 /_  -92.9    1.0166
   -     3       2.4063 /_  117.5    1.0019     4.160        3-1     4.2536 /_  147.2    1.0225
86 ..... 1       2.4671 /_   -4.0    1.0272     4.160        1-2     4.2439 /_   26.7    1.0202
   -     2       2.4699 /_ -122.5    1.0284     4.160        2-3     4.2254 /_  -92.9    1.0157
   -     3       2.4096 /_  117.5    1.0032     4.160        3-1     4.2545 /_  147.1    1.0227
87 ..... 1       2.4658 /_   -4.0    1.0267     4.160        1-2     4.2426 /_   26.7    1.0199
   -     2        2.468 /_ -122.6    1.0276     4.160        2-3     4.2233 /_  -93.0    1.0152
   -     3       2.4108 /_  117.5    1.0038     4.160        3-1     4.2546 /_  147.1    1.0227
89 ..... 1       2.4648 /_   -4.0    1.0262     4.160        1-2     4.2423 /_   26.7    1.0198
   -     2       2.4674 /_ -122.7    1.0273     4.160        2-3     4.2228 /_  -93.0    1.0151
   -     3       2.4117 /_  117.4    1.0041     4.160        3-1     4.2541 /_  147.1    1.0226
91 ..... 1       2.4643 /_   -4.0     1.026     4.160        1-2     4.2416 /_   26.7    1.0196
   -     2       2.4666 /_ -122.7     1.027     4.160        2-3     4.2226 /_  -93.0    1.0151
   -     3       2.4122 /_  117.4    1.0043     4.160        3-1     4.2537 /_  147.0    1.0225
93 ..... 1       2.4636 /_   -4.0    1.0257     4.160        1-2     4.2408 /_   26.7    1.0194
   -     2       2.4662 /_ -122.7    1.0268     4.160        2-3      4.222 /_  -93.0    1.0149
   -     3       2.4124 /_  117.4    1.0044     4.160        3-1     4.2535 /_  147.0    1.0225
95 ..... 1       2.4635 /_   -4.0    1.0257     4.160        1-2     4.2405 /_   26.6    1.0194
   -     2       2.4653 /_ -122.7    1.0265     4.160        2-3     4.2213 /_  -93.0    1.0147
   -     3       2.4128 /_  117.4    1.0046     4.160        3-1     4.2536 /_  147.0    1.0225
96 ..... 2       2.4647 /_ -122.7    1.0262     4.160
94 ..... 1       2.4619 /_   -4.0     1.025     4.160
92 ..... 3       2.4119 /_  117.4    1.0042     4.160
90 ..... 2       2.4672 /_ -122.7    1.0272     4.160
88 ..... 1       2.4657 /_   -4.1    1.0266     4.160
77 ..... 1        2.472 /_   -4.0    1.0292     4.160        1-2     4.2515 /_   26.8     1.022
   -     2        2.477 /_ -122.5    1.0313     4.160        2-3      4.233 /_  -93.0    1.0176
   -     3       2.4082 /_  117.4    1.0027     4.160        3-1     4.2574 /_  147.1    1.0234
78 ..... 1       2.4727 /_   -4.1    1.0295     4.160        1-2     4.2529 /_   26.8    1.0223
   -     2        2.478 /_ -122.5    1.0317     4.160        2-3     4.2343 /_  -93.0    1.0179
   -     3       2.4085 /_  117.4    1.0028     4.160        3-1     4.2583 /_  147.1    1.0236
80 ..... 1       2.4778 /_   -4.1    1.0316     4.160        1-2     4.2606 /_   26.7    1.0242
   -     2       2.4821 /_ -122.5    1.0334     4.160        2-3     4.2405 /_  -93.1    1.0193
   -     3       2.4102 /_  117.3    1.0035     4.160        3-1     4.2633 /_  147.0    1.0248
81 ..... 1       2.4797 /_   -4.1    1.0324     4.160        1-2     4.2636 /_   26.7    1.0249
   -     2       2.4841 /_ -122.5    1.0343     4.160        2-3     4.2432 /_  -93.1      1.02
   -     3       2.4106 /_  117.3    1.0037     4.160        3-1     4.2651 /_  147.0    1.0253
84 ..... 3       2.4042 /_  117.2     1.001     4.160
85 ..... 3       2.4012 /_  117.2   0.99977     4.160
82 ..... 1       2.4817 /_   -4.2    1.0333     4.160        1-2     4.2678 /_   26.7    1.0259
   -     2       2.4872 /_ -122.6    1.0356     4.160        2-3     4.2474 /_  -93.2     1.021
   -     3       2.4123 /_  117.2    1.0044     4.160        3-1     4.2686 /_  147.0    1.0261
83 ..... 1       2.4845 /_   -4.2    1.0345     4.160        1-2     4.2727 /_   26.6    1.0271
   -     2       2.4899 /_ -122.6    1.0367     4.160        2-3     4.2517 /_  -93.2     1.022
   -     3       2.4142 /_  117.2    1.0052     4.160        3-1     4.2722 /_  147.0     1.027
79 ..... 1        2.472 /_   -4.1    1.0292     4.160        1-2     4.2522 /_   26.8    1.0222
   -     2       2.4783 /_ -122.5    1.0319     4.160        2-3     4.2342 /_  -93.0    1.0178
   -     3       2.4084 /_  117.4    1.0027     4.160        3-1     4.2581 /_  147.1    1.0236
73 ..... 3       2.3998 /_  117.5   0.99916     4.160
74 ..... 3       2.3953 /_  117.5   0.99731     4.160
75 ..... 3       2.3928 /_  117.5   0.99626     4.160
68 ..... 1       2.4647 /_   -3.8    1.0262     4.160
69 ..... 1       2.4605 /_   -3.9    1.0244     4.160
70 ..... 1       2.4575 /_   -3.9    1.0232     4.160
71 ..... 1       2.4558 /_   -3.9    1.0225     4.160
62 ..... 1       2.3536 /_   -3.5   0.97994     4.160        1-2     4.1243 /_   27.9   0.99141
   -     2       2.4464 /_ -122.0    1.0186     4.160        2-3     4.1941 /_  -92.5    1.0082
   -     3       2.3916 /_  117.8   0.99575     4.160        3-1     4.1373 /_  146.9   0.99455
63 ..... 1       2.3522 /_   -3.5   0.97934     4.160        1-2     4.1212 /_   27.9   0.99068
   -     2       2.4444 /_ -122.0    1.0177     4.160        2-3     4.1906 /_  -92.5    1.0074
   -     3       2.3892 /_  117.8   0.99474     4.160        3-1     4.1336 /_  146.9   0.99364
64 ..... 1       2.3514 /_   -3.5   0.97902     4.160        1-2     4.1164 /_   27.9   0.98951
   -     2       2.4398 /_ -121.9    1.0159     4.160        2-3     4.1836 /_  -92.5    1.0057
   -     3       2.3839 /_  117.8   0.99258     4.160        3-1     4.1273 /_  146.9   0.99213
65 ..... 1       2.3497 /_   -3.5   0.97833     4.160        1-2     4.1132 /_   27.9   0.98874
   -     2       2.4391 /_ -121.9    1.0155     4.160        2-3     4.1776 /_  -92.5    1.0042
   -     3       2.3767 /_  117.8   0.98957     4.160        3-1     4.1196 /_  146.9   0.99029
66 ..... 1       2.3503 /_   -3.5   0.97857     4.160        1-2     4.1131 /_   27.9   0.98872
   -     2       2.4396 /_ -121.9    1.0158     4.160        2-3     4.1756 /_  -92.5    1.0037
   -     3       2.3731 /_  117.8   0.98805     4.160        3-1     4.1174 /_  147.0   0.98976
61 ..... 1       2.3555 /_   -3.5   0.98072     4.160        1-2     4.1286 /_   27.9   0.99246
   -     2       2.4492 /_ -122.0    1.0197     4.160        2-3     4.1999 /_  -92.4    1.0096
   -     3       2.3965 /_  117.8    0.9978     4.160        3-1     4.1436 /_  146.9   0.99606
61S .... 1       2.3555 /_   -3.5   0.98072     4.160        1-2     4.1286 /_   27.9   0.99246
   -     2       2.4492 /_ -122.0    1.0197     4.160        2-3     4.1999 /_  -92.4    1.0096
   -     3       2.3965 /_  117.8    0.9978     4.160        3-1     4.1436 /_  146.9   0.99606
58 ..... 2       2.4593 /_ -121.6     1.024     4.160
59 ..... 2       2.4585 /_ -121.6    1.0236     4.160
55 ..... 1       2.3786 /_   -2.6   0.99034     4.160        1-2     4.1728 /_   28.6    1.0031
   -     2       2.4673 /_ -121.4    1.0273     4.160        2-3      4.233 /_  -91.8    1.0175
   -     3       2.4181 /_  118.5    1.0068     4.160        3-1     4.1756 /_  147.7    1.0037
56 ..... 1       2.3785 /_   -2.6   0.99031     4.160        1-2     4.1726 /_   28.6     1.003
   -     2       2.4669 /_ -121.4    1.0271     4.160        2-3     4.2327 /_  -91.8    1.0175
   -     3       2.4183 /_  118.5    1.0069     4.160        3-1     4.1755 /_  147.7    1.0037
18 ..... 1       2.3827 /_   -2.3   0.99206     4.160        1-2     4.1742 /_   28.8    1.0034
   -     2       2.4637 /_ -121.2    1.0258     4.160        2-3     4.2232 /_  -91.5    1.0152
   -     3       2.4148 /_  118.9    1.0054     4.160        3-1      4.179 /_  148.1    1.0046
135 .... 1       2.3825 /_   -2.3   0.99199     4.160        1-2     4.1739 /_   28.8    1.0033
   -     2       2.4635 /_ -121.2    1.0257     4.160        2-3     4.2229 /_  -91.5    1.0151
   -     3       2.4147 /_  118.9    1.0054     4.160        3-1     4.1788 /_  148.1    1.0045
35 ..... 1       2.3759 /_   -2.4   0.98921     4.160        1-2     4.1629 /_   28.7    1.0007
   -     2       2.4574 /_ -121.3    1.0232     4.160        2-3     4.2149 /_  -91.6    1.0132
   -     3       2.4121 /_  118.8    1.0043     4.160        3-1     4.1712 /_  148.0    1.0027
40 ..... 1       2.3722 /_   -2.4   0.98769     4.160        1-2     4.1576 /_   28.7   0.99942
   -     2       2.4546 /_ -121.4     1.022     4.160        2-3     4.2103 /_  -91.6    1.0121
   -     3       2.4096 /_  118.8    1.0033     4.160        3-1     4.1657 /_  147.9    1.0014
42 ..... 1       2.3684 /_   -2.5    0.9861     4.160        1-2     4.1523 /_   28.6   0.99816
   -     2       2.4519 /_ -121.4    1.0209     4.160        2-3     4.2059 /_  -91.6     1.011
   -     3       2.4075 /_  118.7    1.0024     4.160        3-1     4.1605 /_  147.9    1.0001
44 ..... 1       2.3658 /_   -2.5   0.98501     4.160        1-2     4.1486 /_   28.6   0.99725
   -     2       2.4502 /_ -121.4    1.0202     4.160        2-3     4.2027 /_  -91.7    1.0103
   -     3       2.4055 /_  118.7    1.0016     4.160        3-1     4.1565 /_  147.8   0.99915
47 ..... 1       2.3633 /_   -2.5   0.98397     4.160        1-2     4.1444 /_   28.6   0.99625
   -     2       2.4477 /_ -121.5    1.0191     4.160        2-3     4.1988 /_  -91.7    1.0093
   -     3       2.4031 /_  118.6    1.0006     4.160        3-1     4.1517 /_  147.8     0.998
49 ..... 1       2.3626 /_   -2.5    0.9837     4.160        1-2     4.1427 /_   28.6   0.99584
   -     2       2.4463 /_ -121.5    1.0186     4.160        2-3     4.1973 /_  -91.7     1.009
   -     3       2.4024 /_  118.6    1.0002     4.160        3-1     4.1501 /_  147.8   0.99761
50 ..... 1       2.3626 /_   -2.5   0.98368     4.160        1-2     4.1423 /_   28.6   0.99575
   -     2       2.4464 /_ -121.5    1.0186     4.160        2-3     4.1971 /_  -91.7    1.0089
   -     3       2.4015 /_  118.6    0.9999     4.160        3-1     4.1493 /_  147.8   0.99743
51 ..... 1       2.3622 /_   -2.5   0.98351     4.160        1-2      4.142 /_   28.6   0.99567
   -     2       2.4466 /_ -121.5    1.0187     4.160        2-3     4.1971 /_  -91.7    1.0089
   -     3       2.4015 /_  118.6   0.99989     4.160        3-1     4.1492 /_  147.8    0.9974
151 .... 1       2.3622 /_   -2.5   0.98351     4.160        1-2      4.142 /_   28.6   0.99567
   -     2       2.4466 /_ -121.5    1.0187     4.160        2-3     4.1971 /_  -91.7    1.0089
   -     3       2.4015 /_  118.6   0.99989     4.160        3-1     4.1492 /_  147.8    0.9974
300_OPEN 1       2.3622 /_   -2.5   0.98351     4.160        1-2      4.142 /_   28.6   0.99567
   -     2       2.4466 /_ -121.5    1.0187     4.160        2-3     4.1971 /_  -91.7    1.0089
   -     3       2.4015 /_  118.6   0.99989     4.160        3-1     4.1492 /_  147.8    0.9974
48 ..... 1       2.3626 /_   -2.5    0.9837     4.160        1-2     4.1432 /_   28.6   0.99597
   -     2        2.447 /_ -121.5    1.0188     4.160        2-3     4.1978 /_  -91.7    1.0091
   -     3       2.4026 /_  118.6    1.0003     4.160        3-1     4.1506 /_  147.8   0.99774
45 ..... 1       2.3645 /_   -2.5   0.98448     4.160
46 ..... 1       2.3635 /_   -2.5   0.98408     4.160
43 ..... 2       2.4487 /_ -121.4    1.0195     4.160
41 ..... 3       2.4086 /_  118.7    1.0028     4.160
36 ..... 1       2.3736 /_   -2.4   0.98829     4.160        1-2     4.1606 /_   28.7    1.0001
   -     2       2.4563 /_ -121.4    1.0227     4.160
38 ..... 2       2.4547 /_ -121.4     1.022     4.160
39 ..... 2       2.4537 /_ -121.4    1.0216     4.160
37 ..... 1       2.3718 /_   -2.4    0.9875     4.160
21 ..... 1       2.3814 /_   -2.4   0.99151     4.160        1-2     4.1721 /_   28.8    1.0029
   -     2       2.4638 /_ -121.2    1.0258     4.160        2-3     4.2214 /_  -91.5    1.0147
   -     3        2.412 /_  118.8    1.0043     4.160        3-1     4.1761 /_  148.0    1.0039
23 ..... 1       2.3804 /_   -2.4    0.9911     4.160        1-2     4.1705 /_   28.8    1.0025
   -     2       2.4647 /_ -121.2    1.0262     4.160        2-3     4.2205 /_  -91.6    1.0145
   -     3       2.4093 /_  118.8    1.0031     4.160        3-1     4.1736 /_  148.0    1.0033
25 ..... 1       2.3788 /_   -2.5   0.99044     4.160        1-2     4.1687 /_   28.8    1.0021
   -     2       2.4658 /_ -121.2    1.0267     4.160        2-3     4.2198 /_  -91.6    1.0144
   -     3       2.4072 /_  118.8    1.0022     4.160        3-1     4.1715 /_  148.0    1.0028
25R .... 1       2.4085 /_   -2.5    1.0028     4.160
   -     3       2.4072 /_  118.8    1.0022     4.160        3-1     4.1974 /_  148.2     1.009
26 ..... 1       2.4079 /_   -2.5    1.0026     4.160
   -     3        2.406 /_  118.8    1.0017     4.160        3-1     4.1962 /_  148.2    1.0087
31 ..... 3       2.4045 /_  118.8    1.0012     4.160
32 ..... 3       2.4036 /_  118.8    1.0008     4.160
27 ..... 1       2.4071 /_   -2.5    1.0022     4.160
   -     3       2.4059 /_  118.8    1.0017     4.160        3-1     4.1959 /_  148.2    1.0086
33 ..... 1       2.4039 /_   -2.5    1.0009     4.160
28 ..... 1       2.3779 /_   -2.5   0.99007     4.160        1-2     4.1678 /_   28.8    1.0019
   -     2       2.4664 /_ -121.2    1.0269     4.160        2-3     4.2195 /_  -91.6    1.0143
   -     3       2.4063 /_  118.8    1.0019     4.160        3-1     4.1707 /_  148.0    1.0026
29 ..... 1       2.3775 /_   -2.5   0.98991     4.160        1-2     4.1672 /_   28.8    1.0017
   -     2       2.4667 /_ -121.2     1.027     4.160        2-3     4.2192 /_  -91.6    1.0142
   -     3       2.4053 /_  118.8    1.0014     4.160        3-1     4.1697 /_  148.0    1.0023
30 ..... 1       2.3782 /_   -2.5   0.99017     4.160        1-2     4.1673 /_   28.8    1.0018
   -     2       2.4666 /_ -121.2     1.027     4.160        2-3     4.2188 /_  -91.6    1.0141
   -     3       2.4042 /_  118.8     1.001     4.160        3-1     4.1689 /_  148.0    1.0021
250 .... 1       2.3782 /_   -2.5   0.99017     4.160        1-2     4.1673 /_   28.8    1.0018
   -     2       2.4666 /_ -121.2     1.027     4.160        2-3     4.2188 /_  -91.6    1.0141
   -     3       2.4042 /_  118.8     1.001     4.160        3-1     4.1689 /_  148.0    1.0021
24 ..... 3       2.4058 /_  118.8    1.0017     4.160
22 ..... 2       2.4604 /_ -121.3    1.0244     4.160
19 ..... 1       2.3795 /_   -2.3   0.99074     4.160
20 ..... 1       2.3775 /_   -2.3   0.98989     4.160
34 ..... 3       2.4303 /_  118.9    1.0119     4.160
15 ..... 3       2.4293 /_  118.9    1.0115     4.160
17 ..... 3       2.4283 /_  118.9     1.011     4.160
16 ..... 3        2.427 /_  118.9    1.0105     4.160
9 ...... 1       2.4202 /_   -1.5    1.0077     4.160
9R ..... 1       2.4202 /_   -1.5    1.0077     4.160
14 ..... 1       2.4161 /_   -1.5     1.006     4.160
10 ..... 1       2.4153 /_   -1.5    1.0056     4.160
11 ..... 1       2.4145 /_   -1.5    1.0053     4.160
12 ..... 2        2.478 /_ -120.7    1.0318     4.160
3 ...... 3       2.4656 /_  119.6    1.0266     4.160
5 ...... 3       2.4625 /_  119.6    1.0253     4.160
6 ...... 3       2.4609 /_  119.6    1.0246     4.160
4 ...... 3       2.4644 /_  119.6    1.0261     4.160
2 ...... 2       2.4851 /_ -120.3    1.0347     4.160
610 .... 1      0.27411 /_   -2.7    0.9891     0.480        1-2    0.47638 /_   27.9   0.99246
   -     2      0.27788 /_ -122.0    1.0027     0.480        2-3    0.48461 /_  -92.4    1.0096
   -     3      0.27887 /_  117.0    1.0063     0.480        3-1    0.47811 /_  146.9   0.99606
150R ... 1       2.4918 /_    0.0    1.0375     4.160        1-2     4.3159 /_   30.0    1.0375
   -     2       2.4918 /_ -120.0    1.0375     4.160        2-3      4.316 /_  -90.0    1.0375
   -     3       2.4918 /_  120.0    1.0375     4.160        3-1      4.316 /_  150.0    1.0375
